9

O  0.000000   0.000000   0.000000 
O  0.000000   1.000000   0.000000 
O  1.000000   0.000000   0.000000 
O  2.000000   0.000000   0.000000 
O  0.000000   2.000000   0.000000 
O  1.000000   1.000000   0.000000 
O  2.000000   1.000000   0.000000 
O  2.000000   2.000000   0.000000 
O  1.000000   2.000000   0.000000 
9

O  0.000000   0.000000   0.000000 
O  0.000000   1.000000   0.000000 
O  1.000000   0.000000   0.000000 
O  2.000000   0.000000   0.000000 
O  0.000000   2.000000   0.000000 
O  1.000000   1.000000   0.000000 
O  2.000000   1.000000   0.000000 
O  2.000000   2.000000   0.000000 
O  1.000000   2.000000   0.000000 
9

O  0.000000   0.000000   0.000000 
O  0.000000   1.000000   0.000000 
O  1.000000   0.000000   0.000000 
O  2.000000   0.000000   0.000000 
O  0.000000   2.000000   0.000000 
O  1.000000   1.000000   0.000000 
O  2.000000   1.000000   0.000000 
O  2.000000   2.000000   0.000000 
O  1.000000   2.000000   0.000000 
9

O  0.000000   0.000000   0.000000 
O  0.000000   1.000000   0.000000 
O  1.000000   0.000000   0.000000 
O  2.000000   0.000000   0.000000 
O  0.000000   2.000000   0.000000 
O  1.000000   1.000000   0.000000 
O  2.000000   1.000000   0.000000 
O  2.000000   2.000000   0.000000 
O  1.000000   2.000000   0.000000 
9

O  0.000000   0.000000   0.000000 
O  0.000000   1.000000   0.000000 
O  1.000000   0.000000   0.000000 
O  2.000000   0.000000   0.000000 
O  0.000000   2.000000   0.000000 
O  1.000000   1.000000   0.000000 
O  2.000000   1.000000   0.000000 
O  2.000000   2.000000   0.000000 
O  1.000000   2.000000   0.000000 
9

O  0.000000   0.000000   0.000000 
O  0.000000   1.000000   0.000000 
O  1.000000   0.000000   0.000000 
O  2.000000   0.000000   0.000000 
O  0.000000   2.000000   0.000000 
O  1.000000   1.000000   0.000000 
O  2.000000   1.000000   0.000000 
O  2.000000   2.000000   0.000000 
O  1.000000   2.000000   0.000000 
9

O  0.000000   0.000000   0.000000 
O  0.000000   1.000000   0.000000 
O  1.000000   0.000000   0.000000 
O  2.000000   0.000000   0.000000 
O  0.000000   2.000000   0.000000 
O  1.000000   1.000000   0.000000 
O  2.000000   1.000000   0.000000 
O  2.000000   2.000000   0.000000 
O  1.000000   2.000000   0.000000 
9

O  0.000000   0.000000   0.000000 
O  0.000000   1.000000   0.000000 
O  1.000000   0.000000   0.000000 
O  2.000000   0.000000   0.000000 
O  0.000000   2.000000   0.000000 
O  1.000000   1.000000   0.000000 
O  2.000000   1.000000   0.000000 
O  2.000000   2.000000   0.000000 
O  1.000000   2.000000   0.000000 
9

O  0.000000   0.000000   0.000000 
O  0.000000   1.000000   0.000000 
O  1.000000   0.000000   0.000000 
O  2.000000   0.000000   0.000000 
O  0.000000   2.000000   0.000000 
O  1.000000   1.000000   0.000000 
O  2.000000   1.000000   0.000000 
O  2.000000   2.000000   0.000000 
O  1.000000   2.000000   0.000000 
9

O  0.000000   0.000000   0.000000 
O  0.000000   1.000000   0.000000 
O  1.000000   0.000000   0.000000 
O  2.000000   0.000000   0.000000 
O  0.000000   2.000000   0.000000 
O  1.000000   1.000000   0.000000 
O  2.000000   1.000000   0.000000 
O  2.000000   2.000000   0.000000 
O  1.000000   2.000000   0.000000 
