 152

 Si         0.9976967995        4.9387500480        0.1612531740
 Li         1.0560540309        2.7466712467        2.0156511847
 Li         1.1508578258       10.5458132907        6.2416186916
 Li         1.0560539164        7.1308285028        2.0156513989
 Si         5.4418701682        4.9387499774        0.1611609103
 Li         0.9727576842        3.2723181746        4.8794794168
 Li         0.9727576204        6.6051819442        4.8794796777
 Li         1.1180482769       12.1038056062        3.4267517363
 Si         3.1779718004        7.2640864140        3.6516452120
 Si         3.1779718756        2.6134134458        3.6516449959
 Si         3.3441272238        8.5940568445        1.6712580219
 Si         0.9558728054       11.1609413232        8.8392573944
 Si         3.3441272402        1.2834428969        1.6712579586
 Si         3.2893796927       10.9330105515        4.7500615703
 Si         3.1730289336        8.7080024742        5.5676694457
 Si         3.1730289572        1.1694975141        5.5676693286
 Li         1.1508126117       10.0090064664        1.0628572804
 Li         1.1428356911        9.2955036984        3.8143726144
 Li         1.1428357964        0.5819962357        3.8143727823
 Li         3.1761735915        6.3072104373       14.2626544315
 Li         0.0728821472        2.4413557926       13.9425496394
 Li         3.1761735746        3.5702895030       14.2626545164
 Li         0.0728825907        7.4361443363       13.9425497272
 Li         1.2493280787        6.1481062617       12.0425606427
 Li         1.2493276826        3.7293938359       12.0425604642
 Si         0.9897768775        8.8862443991        9.5470536933
 Si         0.9897766949        0.9912553957        9.5470536329
 Si         1.0106202724        8.8219893829       11.9180646476
 Si         1.0106201474        1.0555103910       11.9180646257
 Li         0.9762200035        6.1860302752        9.4035480036
 Li         0.9762201020        3.6914694211        9.4035475518
 Li         1.1508578917       19.0866865031        6.2416186837
 Li         1.1180481949       17.5286942560        3.4267518249
 Si         0.9558727903       18.4715583344        8.8392573515
 Si         3.2893796574       18.6994894515        4.7500615604
 Li         1.1508125770       19.6234934399        1.0628573102
 Li         7.6400275596        4.9387500994        1.8448151061
 Li         5.2727577472        3.2723193615        2.2885232715
 Si         7.4779720968        7.2640869627        3.5163559841
 Si         7.6441270470        8.5940584016        5.4967426215
 Si         7.6102230804       10.8687554005        4.7889463468
 Si         7.5893798581       10.9330104855        2.4179354669
 Si         7.4730291422        8.7080015069        1.6003303294
 Li         6.7412195824        4.9387499670        4.4231199359
 Li         5.4508124090       10.0090068989        6.1051418068
 Li         5.4428361394        9.2955038362        3.3536261650
 Li         5.2727576848        6.6051805926        2.2885233396
 Si         7.4779721113        2.6134129534        3.5163558971
 Si         7.6441271471        1.2834415027        5.4967425700
 Si         7.4730291255        1.1694982709        1.6003302872
 Li         5.4428361799        0.5819961343        3.3536259883
 Li         5.4180482217       12.1038057630        3.7412454741
 Li         5.3560542168        2.7466713011        5.1523497022
 Li         5.3560541460        7.1308285411        5.1523496513
 Li         7.3506721356       13.6068937176        2.2934395154
 Li         7.2772576838       12.0519144662        7.1078775418
 Li         8.5271179028       12.3188558453        0.3934503789
 Si         3.3102230975       10.8687548608        2.3790510161
 Si         5.4269710470       11.0469973986        8.7683305597
 Li         7.6237796399       13.5689695654        4.9324523214
 Li         5.4508581247       10.5458140533        0.9263805196
 Li         7.4491422051        9.2091865896        8.0943813238
 Li         7.4491419015        0.6683136875        8.0943812672
 Si         7.5030383253        4.9387501247       13.3818041541
 Si         7.5581092520        4.9387501571       11.0267340873
 Li         7.4819516413        2.2263055968       10.9092483198
 Li         5.5493275073        6.1481063728        9.4614424511
 Li         5.6227414360        2.1744147767       14.2758803068
 Li         5.2762201838        6.1860302504       12.1004552117
 Li         7.4819517680        7.6511943695       10.9092484267
 Li         5.5493272693        3.7293938214        9.4614426502
 Li         5.6227417042        7.7030849329       14.2758801720
 Li         5.2762203785        3.6914694871       12.1004555477
 Si         3.2581092274        4.9387501028       10.4772687371
 Si         5.2976968401        4.9387501254        7.0067512933
 Si         5.2897768880        0.9912548477       11.9569490779
 Si         5.2897770464        8.8862449602       11.9569490537
 Si         5.3106201648        1.0555107173        9.5859384602
 Si         5.3106203632        8.8219893818        9.5859385300
 Li         7.4491875011        0.1315062364       13.2731427864
 Li         7.4491874965        9.7459934772       13.2731427628
 Si         7.6102231402       18.7637444070        4.7889463528
 Si         7.5893798875       18.6994894747        2.4179354127
 Li         5.4508125018       19.6234930899        6.1051416945
 Li         5.4180482611       17.5286943981        3.7412455607
 Li         7.3506722154       16.0256061685        2.2934393267
 Li         7.2772577498       17.5805853913        7.1078777671
 Li         8.5271175740       17.3136442556        0.3934501307
 Si         3.3102231214       18.7637449977        2.3790509775
 Si         5.4269708845       18.5855026576        8.7683304707
 Li         7.6237794082       16.0635305282        4.9324523651
 Li         5.4508580627       19.0866856301        0.9263804264
 Si         1.1418698668        4.9387499050        7.0068435470
 Li         3.3400278662        4.9387500864        5.3231871293
 Si         3.2030383485        4.9387501595        8.1221994299
 Li         3.1819517846        7.6511942157       10.5947543571
 Li         7.4761734972        3.5702892049        7.2413495243
 Li         1.3227426683        7.7030850899        7.2281227328
 Li         4.3728837153        7.4361450146        7.5614518274
 Li         2.4412151246        4.9387499730        2.7448833419
 Li         3.1819516032        2.2263056676       10.5947544276
 Li         7.4761736464        6.3072109648        7.2413496020
 Li         1.3227421664        2.1744146310        7.2281223782
 Li         4.3728833173        2.4413551920        7.5614519074
 Li         3.0506724732       13.6068936959        4.8745574966
 Li         2.9772587758       12.0519146405        0.0601197220
 Li         4.2271166286       12.3188551467        6.7745479950
 Li         3.3237795737       13.5689695507        2.2355446326
 Li         3.1491874819        9.7459930710        8.2308580776
 Li         3.1491873098        0.1315069083        8.2308581853
 Si         5.2558728307       11.1609430269       12.6647419941
 Si         1.1269710746       11.0469982920       12.7356697755
 Li         3.1491418798        0.6683141291       13.4096195616
 Li         3.1491420934        9.2091857132       13.4096195427
 Li         3.0506725297       16.0256062372        4.8745574368
 Li         2.9772584065       17.5805849699        0.0601197798
 Li         4.2271165707       17.3136449915        6.7745479709
 Li         3.3237799325       16.0635303610        2.2355447845
 Si         5.2558729197       18.4715567865       12.6647418918
 Si         1.1269709473       18.5855015558       12.7356696779
 Si         1.0969618193       14.8162500369        0.9541959830
 Si         1.0418905598       14.8162498403        3.3092661014
 Si         5.3418905423       14.8162501465        3.8587311834
 Si         3.3023030545       14.8162500545        7.3292488145
 Li         5.4238265080       13.4477895192        0.0733456184
 Li         5.4238265577       16.1847104325        0.0733455051
 Li         0.9599726928       14.8162498396       12.4911848992
 Si         3.1581298897       14.8162498791       14.1748392512
 Li         3.3272423169       13.1498189416       12.0474767562
 Si         1.1220280489       17.1415868778       10.8196440294
 Li         1.8587812724       14.8162498836        9.9128801914
 Li         3.1571639491       19.1730037263       10.9823738586
 Li         3.3272424012       16.4826807091       12.0474767723
 Si         1.1220279628       12.4909128119       10.8196440102
 Li         3.1571638813       10.4594957796       10.9823737143
 Li         3.2439458600       12.6241710674        9.1836501875
 Li         3.2439458080       17.0083287378        9.1836501617
 Si         5.4220282461       17.1415865205       10.6843546271
 Si         5.4220281832       12.4909133948       10.6843547491
 Si         7.6023033192       14.8162499636       14.1747467761
 Li         7.5439460134       12.6241713727       12.3203487684
 Li         7.5439461514       17.0083283375       12.3203485131
 Li         7.6272424029       13.1498181604        9.4565205013
 Li         7.6272425430       16.4826812181        9.4565206231
 Li         7.4571641149       19.1730035021       10.5216271308
 Li         7.4571640513       10.4594961788       10.5216273451
 Li         1.1238262115       16.1847106823        7.0946502951
 Li         1.1238263428       13.4477889825        7.0946502845
 Li         5.2599720608       14.8162499995        9.0128127403
 Si         5.3969613900       14.8162500305        6.2138004807
 Si         7.4581299445       14.8162498600        7.3291562390
 Li         6.1587841402       14.8162499243       11.5911166853
