16

O  0.000000   0.000000   0.000000 
O  0.000000   1.000000   0.000000 
O  0.000000   2.000000   0.000000 
O  0.000000   3.000000   0.000000 
N  1.000000   0.000000   0.000000 
N  1.000000   1.000000   0.000000 
N  1.000000   2.000000   0.000000 
N  1.000000   3.000000   0.000000 
O  2.000000   0.000000   0.000000 
O  2.000000   1.000000   0.000000 
O  2.000000   2.000000   0.000000 
O  2.000000   3.000000   0.000000 
N  3.000000   0.000000   0.000000 
N  3.000000   1.000000   0.000000 
N  3.000000   2.000000   0.000000 
N  3.000000   3.000000   0.000000 
16

O  0.000000   0.000000   0.000000 
O  0.000000   1.000000   0.000000 
O  0.000000   2.000000   0.000000 
O  0.000000   3.000000   0.000000 
N  1.000000   0.000000   0.000000 
N  1.000000   1.000000   0.000000 
N  1.000000   2.000000   0.000000 
N  1.000000   3.000000   0.000000 
O  2.000000   0.000000   0.000000 
O  2.000000   1.000000   0.000000 
O  2.000000   2.000000   0.000000 
O  2.000000   3.000000   0.000000 
N  3.000000   0.000000   0.000000 
N  3.000000   1.000000   0.000000 
N  3.000000   2.000000   0.000000 
N  3.000000   3.000000   0.000000 
16

O  0.000000   0.000000   0.000000 
O  0.000000   1.000000   0.000000 
O  0.000000   2.000000   0.000000 
O  0.000000   3.000000   0.000000 
N  1.000000   0.000000   0.000000 
N  1.000000   1.000000   0.000000 
N  1.000000   2.000000   0.000000 
N  1.000000   3.000000   0.000000 
O  2.000000   0.000000   0.000000 
O  2.000000   1.000000   0.000000 
O  2.000000   2.000000   0.000000 
O  2.000000   3.000000   0.000000 
N  3.000000   0.000000   0.000000 
N  3.000000   1.000000   0.000000 
N  3.000000   2.000000   0.000000 
N  3.000000   3.000000   0.000000 
16

O  0.000000   0.000000   0.000000 
O  0.000000   1.000000   0.000000 
O  0.000000   2.000000   0.000000 
O  0.000000   3.000000   0.000000 
N  1.000000   0.000000   0.000000 
N  1.000000   1.000000   0.000000 
N  1.000000   2.000000   0.000000 
N  1.000000   3.000000   0.000000 
O  2.000000   0.000000   0.000000 
O  2.000000   1.000000   0.000000 
O  2.000000   2.000000   0.000000 
O  2.000000   3.000000   0.000000 
N  3.000000   0.000000   0.000000 
N  3.000000   1.000000   0.000000 
N  3.000000   2.000000   0.000000 
N  3.000000   3.000000   0.000000 
16

O  0.000000   0.000000   0.000000 
O  0.000000   1.000000   0.000000 
O  0.000000   2.000000   0.000000 
O  0.000000   3.000000   0.000000 
N  1.000000   0.000000   0.000000 
N  1.000000   1.000000   0.000000 
N  1.000000   2.000000   0.000000 
N  1.000000   3.000000   0.000000 
O  2.000000   0.000000   0.000000 
O  2.000000   1.000000   0.000000 
O  2.000000   2.000000   0.000000 
O  2.000000   3.000000   0.000000 
N  3.000000   0.000000   0.000000 
N  3.000000   1.000000   0.000000 
N  3.000000   2.000000   0.000000 
N  3.000000   3.000000   0.000000 
16

O  0.000000   0.000000   0.000000 
O  0.000000   1.000000   0.000000 
O  0.000000   2.000000   0.000000 
O  0.000000   3.000000   0.000000 
N  1.000000   0.000000   0.000000 
N  1.000000   1.000000   0.000000 
N  1.000000   2.000000   0.000000 
N  1.000000   3.000000   0.000000 
O  2.000000   0.000000   0.000000 
O  2.000000   1.000000   0.000000 
O  2.000000   2.000000   0.000000 
O  2.000000   3.000000   0.000000 
N  3.000000   0.000000   0.000000 
N  3.000000   1.000000   0.000000 
N  3.000000   2.000000   0.000000 
N  3.000000   3.000000   0.000000 
16

O  0.000000   0.000000   0.000000 
O  0.000000   1.000000   0.000000 
O  0.000000   2.000000   0.000000 
O  0.000000   3.000000   0.000000 
N  1.000000   0.000000   0.000000 
N  1.000000   1.000000   0.000000 
N  1.000000   2.000000   0.000000 
N  1.000000   3.000000   0.000000 
O  2.000000   0.000000   0.000000 
O  2.000000   1.000000   0.000000 
O  2.000000   2.000000   0.000000 
O  2.000000   3.000000   0.000000 
N  3.000000   0.000000   0.000000 
N  3.000000   1.000000   0.000000 
N  3.000000   2.000000   0.000000 
N  3.000000   3.000000   0.000000 
16

O  0.000000   0.000000   0.000000 
O  0.000000   1.000000   0.000000 
O  0.000000   2.000000   0.000000 
O  0.000000   3.000000   0.000000 
N  1.000000   0.000000   0.000000 
N  1.000000   1.000000   0.000000 
N  1.000000   2.000000   0.000000 
N  1.000000   3.000000   0.000000 
O  2.000000   0.000000   0.000000 
O  2.000000   1.000000   0.000000 
O  2.000000   2.000000   0.000000 
O  2.000000   3.000000   0.000000 
N  3.000000   0.000000   0.000000 
N  3.000000   1.000000   0.000000 
N  3.000000   2.000000   0.000000 
N  3.000000   3.000000   0.000000 
16

O  0.000000   0.000000   0.000000 
O  0.000000   1.000000   0.000000 
O  0.000000   2.000000   0.000000 
O  0.000000   3.000000   0.000000 
N  1.000000   0.000000   0.000000 
N  1.000000   1.000000   0.000000 
N  1.000000   2.000000   0.000000 
N  1.000000   3.000000   0.000000 
O  2.000000   0.000000   0.000000 
O  2.000000   1.000000   0.000000 
O  2.000000   2.000000   0.000000 
O  2.000000   3.000000   0.000000 
N  3.000000   0.000000   0.000000 
N  3.000000   1.000000   0.000000 
N  3.000000   2.000000   0.000000 
N  3.000000   3.000000   0.000000 
16

O  0.000000   0.000000   0.000000 
O  0.000000   1.000000   0.000000 
O  0.000000   2.000000   0.000000 
O  0.000000   3.000000   0.000000 
N  1.000000   0.000000   0.000000 
N  1.000000   1.000000   0.000000 
N  1.000000   2.000000   0.000000 
N  1.000000   3.000000   0.000000 
O  2.000000   0.000000   0.000000 
O  2.000000   1.000000   0.000000 
O  2.000000   2.000000   0.000000 
O  2.000000   3.000000   0.000000 
N  3.000000   0.000000   0.000000 
N  3.000000   1.000000   0.000000 
N  3.000000   2.000000   0.000000 
N  3.000000   3.000000   0.000000 
