100

O  0.000000   0.000000   0.000000 
O  1.000000   0.000000   0.000000 
O  2.000000   0.000000   0.000000 
O  3.000000   0.000000   0.000000 
O  4.000000   0.000000   0.000000 
O  5.000000   0.000000   0.000000 
O  6.000000   0.000000   0.000000 
O  7.000000   0.000000   0.000000 
O  8.000000   0.000000   0.000000 
O  9.000000   0.000000   0.000000 
O  10.000000   0.000000   0.000000 
O  11.000000   0.000000   0.000000 
O  12.000000   0.000000   0.000000 
O  13.000000   0.000000   0.000000 
O  14.000000   0.000000   0.000000 
O  15.000000   0.000000   0.000000 
O  16.000000   0.000000   0.000000 
O  17.000000   0.000000   0.000000 
O  18.000000   0.000000   0.000000 
O  19.000000   0.000000   0.000000 
O  20.000000   0.000000   0.000000 
O  21.000000   0.000000   0.000000 
O  22.000000   0.000000   0.000000 
O  23.000000   0.000000   0.000000 
O  24.000000   0.000000   0.000000 
O  25.000000   0.000000   0.000000 
O  26.000000   0.000000   0.000000 
O  27.000000   0.000000   0.000000 
O  28.000000   0.000000   0.000000 
O  29.000000   0.000000   0.000000 
O  30.000000   0.000000   0.000000 
O  31.000000   0.000000   0.000000 
O  32.000000   0.000000   0.000000 
O  33.000000   0.000000   0.000000 
O  34.000000   0.000000   0.000000 
O  35.000000   0.000000   0.000000 
O  36.000000   0.000000   0.000000 
O  37.000000   0.000000   0.000000 
O  38.000000   0.000000   0.000000 
O  39.000000   0.000000   0.000000 
O  40.000000   0.000000   0.000000 
O  41.000000   0.000000   0.000000 
O  42.000000   0.000000   0.000000 
O  43.000000   0.000000   0.000000 
O  44.000000   0.000000   0.000000 
O  45.000000   0.000000   0.000000 
O  46.000000   0.000000   0.000000 
O  47.000000   0.000000   0.000000 
O  48.000000   0.000000   0.000000 
O  49.000000   0.000000   0.000000 
O  50.000000   0.000000   0.000000 
O  51.000000   0.000000   0.000000 
O  52.000000   0.000000   0.000000 
O  53.000000   0.000000   0.000000 
O  54.000000   0.000000   0.000000 
O  55.000000   0.000000   0.000000 
O  56.000000   0.000000   0.000000 
O  57.000000   0.000000   0.000000 
O  58.000000   0.000000   0.000000 
O  59.000000   0.000000   0.000000 
O  60.000000   0.000000   0.000000 
O  61.000000   0.000000   0.000000 
O  62.000000   0.000000   0.000000 
O  63.000000   0.000000   0.000000 
O  64.000000   0.000000   0.000000 
O  65.000000   0.000000   0.000000 
O  66.000000   0.000000   0.000000 
O  67.000000   0.000000   0.000000 
O  68.000000   0.000000   0.000000 
O  69.000000   0.000000   0.000000 
O  70.000000   0.000000   0.000000 
O  71.000000   0.000000   0.000000 
O  72.000000   0.000000   0.000000 
O  73.000000   0.000000   0.000000 
O  74.000000   0.000000   0.000000 
O  75.000000   0.000000   0.000000 
O  76.000000   0.000000   0.000000 
O  77.000000   0.000000   0.000000 
O  78.000000   0.000000   0.000000 
O  79.000000   0.000000   0.000000 
O  80.000000   0.000000   0.000000 
O  81.000000   0.000000   0.000000 
O  82.000000   0.000000   0.000000 
O  83.000000   0.000000   0.000000 
O  84.000000   0.000000   0.000000 
O  85.000000   0.000000   0.000000 
O  86.000000   0.000000   0.000000 
O  87.000000   0.000000   0.000000 
O  88.000000   0.000000   0.000000 
O  89.000000   0.000000   0.000000 
O  90.000000   0.000000   0.000000 
O  91.000000   0.000000   0.000000 
O  92.000000   0.000000   0.000000 
O  93.000000   0.000000   0.000000 
O  94.000000   0.000000   0.000000 
O  95.000000   0.000000   0.000000 
O  96.000000   0.000000   0.000000 
O  97.000000   0.000000   0.000000 
O  98.000000   0.000000   0.000000 
O  99.000000   0.000000   0.000000 
100

O  0.000000   0.000000   0.000000 
O  1.000000   0.000000   0.000000 
O  2.000000   0.000000   0.000000 
O  3.000000   0.000000   0.000000 
O  4.000000   0.000000   0.000000 
O  5.000000   0.000000   0.000000 
O  6.000000   0.000000   0.000000 
O  7.000000   0.000000   0.000000 
O  8.000000   0.000000   0.000000 
O  9.000000   0.000000   0.000000 
O  10.000000   0.000000   0.000000 
O  11.000000   0.000000   0.000000 
O  12.000000   0.000000   0.000000 
O  13.000000   0.000000   0.000000 
O  14.000000   0.000000   0.000000 
O  15.000000   0.000000   0.000000 
O  16.000000   0.000000   0.000000 
O  17.000000   0.000000   0.000000 
O  18.000000   0.000000   0.000000 
O  19.000000   0.000000   0.000000 
O  20.000000   0.000000   0.000000 
O  21.000000   0.000000   0.000000 
O  22.000000   0.000000   0.000000 
O  23.000000   0.000000   0.000000 
O  24.000000   0.000000   0.000000 
O  25.000000   0.000000   0.000000 
O  26.000000   0.000000   0.000000 
O  27.000000   0.000000   0.000000 
O  28.000000   0.000000   0.000000 
O  29.000000   0.000000   0.000000 
O  30.000000   0.000000   0.000000 
O  31.000000   0.000000   0.000000 
O  32.000000   0.000000   0.000000 
O  33.000000   0.000000   0.000000 
O  34.000000   0.000000   0.000000 
O  35.000000   0.000000   0.000000 
O  36.000000   0.000000   0.000000 
O  37.000000   0.000000   0.000000 
O  38.000000   0.000000   0.000000 
O  39.000000   0.000000   0.000000 
O  40.000000   0.000000   0.000000 
O  41.000000   0.000000   0.000000 
O  42.000000   0.000000   0.000000 
O  43.000000   0.000000   0.000000 
O  44.000000   0.000000   0.000000 
O  45.000000   0.000000   0.000000 
O  46.000000   0.000000   0.000000 
O  47.000000   0.000000   0.000000 
O  48.000000   0.000000   0.000000 
O  49.000000   0.000000   0.000000 
O  50.000000   0.000000   0.000000 
O  51.000000   0.000000   0.000000 
O  52.000000   0.000000   0.000000 
O  53.000000   0.000000   0.000000 
O  54.000000   0.000000   0.000000 
O  55.000000   0.000000   0.000000 
O  56.000000   0.000000   0.000000 
O  57.000000   0.000000   0.000000 
O  58.000000   0.000000   0.000000 
O  59.000000   0.000000   0.000000 
O  60.000000   0.000000   0.000000 
O  61.000000   0.000000   0.000000 
O  62.000000   0.000000   0.000000 
O  63.000000   0.000000   0.000000 
O  64.000000   0.000000   0.000000 
O  65.000000   0.000000   0.000000 
O  66.000000   0.000000   0.000000 
O  67.000000   0.000000   0.000000 
O  68.000000   0.000000   0.000000 
O  69.000000   0.000000   0.000000 
O  70.000000   0.000000   0.000000 
O  71.000000   0.000000   0.000000 
O  72.000000   0.000000   0.000000 
O  73.000000   0.000000   0.000000 
O  74.000000   0.000000   0.000000 
O  75.000000   0.000000   0.000000 
O  76.000000   0.000000   0.000000 
O  77.000000   0.000000   0.000000 
O  78.000000   0.000000   0.000000 
O  79.000000   0.000000   0.000000 
O  80.000000   0.000000   0.000000 
O  81.000000   0.000000   0.000000 
O  82.000000   0.000000   0.000000 
O  83.000000   0.000000   0.000000 
O  84.000000   0.000000   0.000000 
O  85.000000   0.000000   0.000000 
O  86.000000   0.000000   0.000000 
O  87.000000   0.000000   0.000000 
O  88.000000   0.000000   0.000000 
O  89.000000   0.000000   0.000000 
O  90.000000   0.000000   0.000000 
O  91.000000   0.000000   0.000000 
O  92.000000   0.000000   0.000000 
O  93.000000   0.000000   0.000000 
O  94.000000   0.000000   0.000000 
O  95.000000   0.000000   0.000000 
O  96.000000   0.000000   0.000000 
O  97.000000   0.000000   0.000000 
O  98.000000   0.000000   0.000000 
O  99.000000   0.000000   0.000000 
100

O  0.000000   0.000000   0.000000 
O  1.000000   0.000000   0.000000 
O  2.000000   0.000000   0.000000 
O  3.000000   0.000000   0.000000 
O  4.000000   0.000000   0.000000 
O  5.000000   0.000000   0.000000 
O  6.000000   0.000000   0.000000 
O  7.000000   0.000000   0.000000 
O  8.000000   0.000000   0.000000 
O  9.000000   0.000000   0.000000 
O  10.000000   0.000000   0.000000 
O  11.000000   0.000000   0.000000 
O  12.000000   0.000000   0.000000 
O  13.000000   0.000000   0.000000 
O  14.000000   0.000000   0.000000 
O  15.000000   0.000000   0.000000 
O  16.000000   0.000000   0.000000 
O  17.000000   0.000000   0.000000 
O  18.000000   0.000000   0.000000 
O  19.000000   0.000000   0.000000 
O  20.000000   0.000000   0.000000 
O  21.000000   0.000000   0.000000 
O  22.000000   0.000000   0.000000 
O  23.000000   0.000000   0.000000 
O  24.000000   0.000000   0.000000 
O  25.000000   0.000000   0.000000 
O  26.000000   0.000000   0.000000 
O  27.000000   0.000000   0.000000 
O  28.000000   0.000000   0.000000 
O  29.000000   0.000000   0.000000 
O  30.000000   0.000000   0.000000 
O  31.000000   0.000000   0.000000 
O  32.000000   0.000000   0.000000 
O  33.000000   0.000000   0.000000 
O  34.000000   0.000000   0.000000 
O  35.000000   0.000000   0.000000 
O  36.000000   0.000000   0.000000 
O  37.000000   0.000000   0.000000 
O  38.000000   0.000000   0.000000 
O  39.000000   0.000000   0.000000 
O  40.000000   0.000000   0.000000 
O  41.000000   0.000000   0.000000 
O  42.000000   0.000000   0.000000 
O  43.000000   0.000000   0.000000 
O  44.000000   0.000000   0.000000 
O  45.000000   0.000000   0.000000 
O  46.000000   0.000000   0.000000 
O  47.000000   0.000000   0.000000 
O  48.000000   0.000000   0.000000 
O  49.000000   0.000000   0.000000 
O  50.000000   0.000000   0.000000 
O  51.000000   0.000000   0.000000 
O  52.000000   0.000000   0.000000 
O  53.000000   0.000000   0.000000 
O  54.000000   0.000000   0.000000 
O  55.000000   0.000000   0.000000 
O  56.000000   0.000000   0.000000 
O  57.000000   0.000000   0.000000 
O  58.000000   0.000000   0.000000 
O  59.000000   0.000000   0.000000 
O  60.000000   0.000000   0.000000 
O  61.000000   0.000000   0.000000 
O  62.000000   0.000000   0.000000 
O  63.000000   0.000000   0.000000 
O  64.000000   0.000000   0.000000 
O  65.000000   0.000000   0.000000 
O  66.000000   0.000000   0.000000 
O  67.000000   0.000000   0.000000 
O  68.000000   0.000000   0.000000 
O  69.000000   0.000000   0.000000 
O  70.000000   0.000000   0.000000 
O  71.000000   0.000000   0.000000 
O  72.000000   0.000000   0.000000 
O  73.000000   0.000000   0.000000 
O  74.000000   0.000000   0.000000 
O  75.000000   0.000000   0.000000 
O  76.000000   0.000000   0.000000 
O  77.000000   0.000000   0.000000 
O  78.000000   0.000000   0.000000 
O  79.000000   0.000000   0.000000 
O  80.000000   0.000000   0.000000 
O  81.000000   0.000000   0.000000 
O  82.000000   0.000000   0.000000 
O  83.000000   0.000000   0.000000 
O  84.000000   0.000000   0.000000 
O  85.000000   0.000000   0.000000 
O  86.000000   0.000000   0.000000 
O  87.000000   0.000000   0.000000 
O  88.000000   0.000000   0.000000 
O  89.000000   0.000000   0.000000 
O  90.000000   0.000000   0.000000 
O  91.000000   0.000000   0.000000 
O  92.000000   0.000000   0.000000 
O  93.000000   0.000000   0.000000 
O  94.000000   0.000000   0.000000 
O  95.000000   0.000000   0.000000 
O  96.000000   0.000000   0.000000 
O  97.000000   0.000000   0.000000 
O  98.000000   0.000000   0.000000 
O  99.000000   0.000000   0.000000 
100

O  0.000000   0.000000   0.000000 
O  1.000000   0.000000   0.000000 
O  2.000000   0.000000   0.000000 
O  3.000000   0.000000   0.000000 
O  4.000000   0.000000   0.000000 
O  5.000000   0.000000   0.000000 
O  6.000000   0.000000   0.000000 
O  7.000000   0.000000   0.000000 
O  8.000000   0.000000   0.000000 
O  9.000000   0.000000   0.000000 
O  10.000000   0.000000   0.000000 
O  11.000000   0.000000   0.000000 
O  12.000000   0.000000   0.000000 
O  13.000000   0.000000   0.000000 
O  14.000000   0.000000   0.000000 
O  15.000000   0.000000   0.000000 
O  16.000000   0.000000   0.000000 
O  17.000000   0.000000   0.000000 
O  18.000000   0.000000   0.000000 
O  19.000000   0.000000   0.000000 
O  20.000000   0.000000   0.000000 
O  21.000000   0.000000   0.000000 
O  22.000000   0.000000   0.000000 
O  23.000000   0.000000   0.000000 
O  24.000000   0.000000   0.000000 
O  25.000000   0.000000   0.000000 
O  26.000000   0.000000   0.000000 
O  27.000000   0.000000   0.000000 
O  28.000000   0.000000   0.000000 
O  29.000000   0.000000   0.000000 
O  30.000000   0.000000   0.000000 
O  31.000000   0.000000   0.000000 
O  32.000000   0.000000   0.000000 
O  33.000000   0.000000   0.000000 
O  34.000000   0.000000   0.000000 
O  35.000000   0.000000   0.000000 
O  36.000000   0.000000   0.000000 
O  37.000000   0.000000   0.000000 
O  38.000000   0.000000   0.000000 
O  39.000000   0.000000   0.000000 
O  40.000000   0.000000   0.000000 
O  41.000000   0.000000   0.000000 
O  42.000000   0.000000   0.000000 
O  43.000000   0.000000   0.000000 
O  44.000000   0.000000   0.000000 
O  45.000000   0.000000   0.000000 
O  46.000000   0.000000   0.000000 
O  47.000000   0.000000   0.000000 
O  48.000000   0.000000   0.000000 
O  49.000000   0.000000   0.000000 
O  50.000000   0.000000   0.000000 
O  51.000000   0.000000   0.000000 
O  52.000000   0.000000   0.000000 
O  53.000000   0.000000   0.000000 
O  54.000000   0.000000   0.000000 
O  55.000000   0.000000   0.000000 
O  56.000000   0.000000   0.000000 
O  57.000000   0.000000   0.000000 
O  58.000000   0.000000   0.000000 
O  59.000000   0.000000   0.000000 
O  60.000000   0.000000   0.000000 
O  61.000000   0.000000   0.000000 
O  62.000000   0.000000   0.000000 
O  63.000000   0.000000   0.000000 
O  64.000000   0.000000   0.000000 
O  65.000000   0.000000   0.000000 
O  66.000000   0.000000   0.000000 
O  67.000000   0.000000   0.000000 
O  68.000000   0.000000   0.000000 
O  69.000000   0.000000   0.000000 
O  70.000000   0.000000   0.000000 
O  71.000000   0.000000   0.000000 
O  72.000000   0.000000   0.000000 
O  73.000000   0.000000   0.000000 
O  74.000000   0.000000   0.000000 
O  75.000000   0.000000   0.000000 
O  76.000000   0.000000   0.000000 
O  77.000000   0.000000   0.000000 
O  78.000000   0.000000   0.000000 
O  79.000000   0.000000   0.000000 
O  80.000000   0.000000   0.000000 
O  81.000000   0.000000   0.000000 
O  82.000000   0.000000   0.000000 
O  83.000000   0.000000   0.000000 
O  84.000000   0.000000   0.000000 
O  85.000000   0.000000   0.000000 
O  86.000000   0.000000   0.000000 
O  87.000000   0.000000   0.000000 
O  88.000000   0.000000   0.000000 
O  89.000000   0.000000   0.000000 
O  90.000000   0.000000   0.000000 
O  91.000000   0.000000   0.000000 
O  92.000000   0.000000   0.000000 
O  93.000000   0.000000   0.000000 
O  94.000000   0.000000   0.000000 
O  95.000000   0.000000   0.000000 
O  96.000000   0.000000   0.000000 
O  97.000000   0.000000   0.000000 
O  98.000000   0.000000   0.000000 
O  99.000000   0.000000   0.000000 
100

O  0.000000   0.000000   0.000000 
O  1.000000   0.000000   0.000000 
O  2.000000   0.000000   0.000000 
O  3.000000   0.000000   0.000000 
O  4.000000   0.000000   0.000000 
O  5.000000   0.000000   0.000000 
O  6.000000   0.000000   0.000000 
O  7.000000   0.000000   0.000000 
O  8.000000   0.000000   0.000000 
O  9.000000   0.000000   0.000000 
O  10.000000   0.000000   0.000000 
O  11.000000   0.000000   0.000000 
O  12.000000   0.000000   0.000000 
O  13.000000   0.000000   0.000000 
O  14.000000   0.000000   0.000000 
O  15.000000   0.000000   0.000000 
O  16.000000   0.000000   0.000000 
O  17.000000   0.000000   0.000000 
O  18.000000   0.000000   0.000000 
O  19.000000   0.000000   0.000000 
O  20.000000   0.000000   0.000000 
O  21.000000   0.000000   0.000000 
O  22.000000   0.000000   0.000000 
O  23.000000   0.000000   0.000000 
O  24.000000   0.000000   0.000000 
O  25.000000   0.000000   0.000000 
O  26.000000   0.000000   0.000000 
O  27.000000   0.000000   0.000000 
O  28.000000   0.000000   0.000000 
O  29.000000   0.000000   0.000000 
O  30.000000   0.000000   0.000000 
O  31.000000   0.000000   0.000000 
O  32.000000   0.000000   0.000000 
O  33.000000   0.000000   0.000000 
O  34.000000   0.000000   0.000000 
O  35.000000   0.000000   0.000000 
O  36.000000   0.000000   0.000000 
O  37.000000   0.000000   0.000000 
O  38.000000   0.000000   0.000000 
O  39.000000   0.000000   0.000000 
O  40.000000   0.000000   0.000000 
O  41.000000   0.000000   0.000000 
O  42.000000   0.000000   0.000000 
O  43.000000   0.000000   0.000000 
O  44.000000   0.000000   0.000000 
O  45.000000   0.000000   0.000000 
O  46.000000   0.000000   0.000000 
O  47.000000   0.000000   0.000000 
O  48.000000   0.000000   0.000000 
O  49.000000   0.000000   0.000000 
O  50.000000   0.000000   0.000000 
O  51.000000   0.000000   0.000000 
O  52.000000   0.000000   0.000000 
O  53.000000   0.000000   0.000000 
O  54.000000   0.000000   0.000000 
O  55.000000   0.000000   0.000000 
O  56.000000   0.000000   0.000000 
O  57.000000   0.000000   0.000000 
O  58.000000   0.000000   0.000000 
O  59.000000   0.000000   0.000000 
O  60.000000   0.000000   0.000000 
O  61.000000   0.000000   0.000000 
O  62.000000   0.000000   0.000000 
O  63.000000   0.000000   0.000000 
O  64.000000   0.000000   0.000000 
O  65.000000   0.000000   0.000000 
O  66.000000   0.000000   0.000000 
O  67.000000   0.000000   0.000000 
O  68.000000   0.000000   0.000000 
O  69.000000   0.000000   0.000000 
O  70.000000   0.000000   0.000000 
O  71.000000   0.000000   0.000000 
O  72.000000   0.000000   0.000000 
O  73.000000   0.000000   0.000000 
O  74.000000   0.000000   0.000000 
O  75.000000   0.000000   0.000000 
O  76.000000   0.000000   0.000000 
O  77.000000   0.000000   0.000000 
O  78.000000   0.000000   0.000000 
O  79.000000   0.000000   0.000000 
O  80.000000   0.000000   0.000000 
O  81.000000   0.000000   0.000000 
O  82.000000   0.000000   0.000000 
O  83.000000   0.000000   0.000000 
O  84.000000   0.000000   0.000000 
O  85.000000   0.000000   0.000000 
O  86.000000   0.000000   0.000000 
O  87.000000   0.000000   0.000000 
O  88.000000   0.000000   0.000000 
O  89.000000   0.000000   0.000000 
O  90.000000   0.000000   0.000000 
O  91.000000   0.000000   0.000000 
O  92.000000   0.000000   0.000000 
O  93.000000   0.000000   0.000000 
O  94.000000   0.000000   0.000000 
O  95.000000   0.000000   0.000000 
O  96.000000   0.000000   0.000000 
O  97.000000   0.000000   0.000000 
O  98.000000   0.000000   0.000000 
O  99.000000   0.000000   0.000000 
100

O  0.000000   0.000000   0.000000 
O  1.000000   0.000000   0.000000 
O  2.000000   0.000000   0.000000 
O  3.000000   0.000000   0.000000 
O  4.000000   0.000000   0.000000 
O  5.000000   0.000000   0.000000 
O  6.000000   0.000000   0.000000 
O  7.000000   0.000000   0.000000 
O  8.000000   0.000000   0.000000 
O  9.000000   0.000000   0.000000 
O  10.000000   0.000000   0.000000 
O  11.000000   0.000000   0.000000 
O  12.000000   0.000000   0.000000 
O  13.000000   0.000000   0.000000 
O  14.000000   0.000000   0.000000 
O  15.000000   0.000000   0.000000 
O  16.000000   0.000000   0.000000 
O  17.000000   0.000000   0.000000 
O  18.000000   0.000000   0.000000 
O  19.000000   0.000000   0.000000 
O  20.000000   0.000000   0.000000 
O  21.000000   0.000000   0.000000 
O  22.000000   0.000000   0.000000 
O  23.000000   0.000000   0.000000 
O  24.000000   0.000000   0.000000 
O  25.000000   0.000000   0.000000 
O  26.000000   0.000000   0.000000 
O  27.000000   0.000000   0.000000 
O  28.000000   0.000000   0.000000 
O  29.000000   0.000000   0.000000 
O  30.000000   0.000000   0.000000 
O  31.000000   0.000000   0.000000 
O  32.000000   0.000000   0.000000 
O  33.000000   0.000000   0.000000 
O  34.000000   0.000000   0.000000 
O  35.000000   0.000000   0.000000 
O  36.000000   0.000000   0.000000 
O  37.000000   0.000000   0.000000 
O  38.000000   0.000000   0.000000 
O  39.000000   0.000000   0.000000 
O  40.000000   0.000000   0.000000 
O  41.000000   0.000000   0.000000 
O  42.000000   0.000000   0.000000 
O  43.000000   0.000000   0.000000 
O  44.000000   0.000000   0.000000 
O  45.000000   0.000000   0.000000 
O  46.000000   0.000000   0.000000 
O  47.000000   0.000000   0.000000 
O  48.000000   0.000000   0.000000 
O  49.000000   0.000000   0.000000 
O  50.000000   0.000000   0.000000 
O  51.000000   0.000000   0.000000 
O  52.000000   0.000000   0.000000 
O  53.000000   0.000000   0.000000 
O  54.000000   0.000000   0.000000 
O  55.000000   0.000000   0.000000 
O  56.000000   0.000000   0.000000 
O  57.000000   0.000000   0.000000 
O  58.000000   0.000000   0.000000 
O  59.000000   0.000000   0.000000 
O  60.000000   0.000000   0.000000 
O  61.000000   0.000000   0.000000 
O  62.000000   0.000000   0.000000 
O  63.000000   0.000000   0.000000 
O  64.000000   0.000000   0.000000 
O  65.000000   0.000000   0.000000 
O  66.000000   0.000000   0.000000 
O  67.000000   0.000000   0.000000 
O  68.000000   0.000000   0.000000 
O  69.000000   0.000000   0.000000 
O  70.000000   0.000000   0.000000 
O  71.000000   0.000000   0.000000 
O  72.000000   0.000000   0.000000 
O  73.000000   0.000000   0.000000 
O  74.000000   0.000000   0.000000 
O  75.000000   0.000000   0.000000 
O  76.000000   0.000000   0.000000 
O  77.000000   0.000000   0.000000 
O  78.000000   0.000000   0.000000 
O  79.000000   0.000000   0.000000 
O  80.000000   0.000000   0.000000 
O  81.000000   0.000000   0.000000 
O  82.000000   0.000000   0.000000 
O  83.000000   0.000000   0.000000 
O  84.000000   0.000000   0.000000 
O  85.000000   0.000000   0.000000 
O  86.000000   0.000000   0.000000 
O  87.000000   0.000000   0.000000 
O  88.000000   0.000000   0.000000 
O  89.000000   0.000000   0.000000 
O  90.000000   0.000000   0.000000 
O  91.000000   0.000000   0.000000 
O  92.000000   0.000000   0.000000 
O  93.000000   0.000000   0.000000 
O  94.000000   0.000000   0.000000 
O  95.000000   0.000000   0.000000 
O  96.000000   0.000000   0.000000 
O  97.000000   0.000000   0.000000 
O  98.000000   0.000000   0.000000 
O  99.000000   0.000000   0.000000 
100

O  0.000000   0.000000   0.000000 
O  1.000000   0.000000   0.000000 
O  2.000000   0.000000   0.000000 
O  3.000000   0.000000   0.000000 
O  4.000000   0.000000   0.000000 
O  5.000000   0.000000   0.000000 
O  6.000000   0.000000   0.000000 
O  7.000000   0.000000   0.000000 
O  8.000000   0.000000   0.000000 
O  9.000000   0.000000   0.000000 
O  10.000000   0.000000   0.000000 
O  11.000000   0.000000   0.000000 
O  12.000000   0.000000   0.000000 
O  13.000000   0.000000   0.000000 
O  14.000000   0.000000   0.000000 
O  15.000000   0.000000   0.000000 
O  16.000000   0.000000   0.000000 
O  17.000000   0.000000   0.000000 
O  18.000000   0.000000   0.000000 
O  19.000000   0.000000   0.000000 
O  20.000000   0.000000   0.000000 
O  21.000000   0.000000   0.000000 
O  22.000000   0.000000   0.000000 
O  23.000000   0.000000   0.000000 
O  24.000000   0.000000   0.000000 
O  25.000000   0.000000   0.000000 
O  26.000000   0.000000   0.000000 
O  27.000000   0.000000   0.000000 
O  28.000000   0.000000   0.000000 
O  29.000000   0.000000   0.000000 
O  30.000000   0.000000   0.000000 
O  31.000000   0.000000   0.000000 
O  32.000000   0.000000   0.000000 
O  33.000000   0.000000   0.000000 
O  34.000000   0.000000   0.000000 
O  35.000000   0.000000   0.000000 
O  36.000000   0.000000   0.000000 
O  37.000000   0.000000   0.000000 
O  38.000000   0.000000   0.000000 
O  39.000000   0.000000   0.000000 
O  40.000000   0.000000   0.000000 
O  41.000000   0.000000   0.000000 
O  42.000000   0.000000   0.000000 
O  43.000000   0.000000   0.000000 
O  44.000000   0.000000   0.000000 
O  45.000000   0.000000   0.000000 
O  46.000000   0.000000   0.000000 
O  47.000000   0.000000   0.000000 
O  48.000000   0.000000   0.000000 
O  49.000000   0.000000   0.000000 
O  50.000000   0.000000   0.000000 
O  51.000000   0.000000   0.000000 
O  52.000000   0.000000   0.000000 
O  53.000000   0.000000   0.000000 
O  54.000000   0.000000   0.000000 
O  55.000000   0.000000   0.000000 
O  56.000000   0.000000   0.000000 
O  57.000000   0.000000   0.000000 
O  58.000000   0.000000   0.000000 
O  59.000000   0.000000   0.000000 
O  60.000000   0.000000   0.000000 
O  61.000000   0.000000   0.000000 
O  62.000000   0.000000   0.000000 
O  63.000000   0.000000   0.000000 
O  64.000000   0.000000   0.000000 
O  65.000000   0.000000   0.000000 
O  66.000000   0.000000   0.000000 
O  67.000000   0.000000   0.000000 
O  68.000000   0.000000   0.000000 
O  69.000000   0.000000   0.000000 
O  70.000000   0.000000   0.000000 
O  71.000000   0.000000   0.000000 
O  72.000000   0.000000   0.000000 
O  73.000000   0.000000   0.000000 
O  74.000000   0.000000   0.000000 
O  75.000000   0.000000   0.000000 
O  76.000000   0.000000   0.000000 
O  77.000000   0.000000   0.000000 
O  78.000000   0.000000   0.000000 
O  79.000000   0.000000   0.000000 
O  80.000000   0.000000   0.000000 
O  81.000000   0.000000   0.000000 
O  82.000000   0.000000   0.000000 
O  83.000000   0.000000   0.000000 
O  84.000000   0.000000   0.000000 
O  85.000000   0.000000   0.000000 
O  86.000000   0.000000   0.000000 
O  87.000000   0.000000   0.000000 
O  88.000000   0.000000   0.000000 
O  89.000000   0.000000   0.000000 
O  90.000000   0.000000   0.000000 
O  91.000000   0.000000   0.000000 
O  92.000000   0.000000   0.000000 
O  93.000000   0.000000   0.000000 
O  94.000000   0.000000   0.000000 
O  95.000000   0.000000   0.000000 
O  96.000000   0.000000   0.000000 
O  97.000000   0.000000   0.000000 
O  98.000000   0.000000   0.000000 
O  99.000000   0.000000   0.000000 
100

O  0.000000   0.000000   0.000000 
O  1.000000   0.000000   0.000000 
O  2.000000   0.000000   0.000000 
O  3.000000   0.000000   0.000000 
O  4.000000   0.000000   0.000000 
O  5.000000   0.000000   0.000000 
O  6.000000   0.000000   0.000000 
O  7.000000   0.000000   0.000000 
O  8.000000   0.000000   0.000000 
O  9.000000   0.000000   0.000000 
O  10.000000   0.000000   0.000000 
O  11.000000   0.000000   0.000000 
O  12.000000   0.000000   0.000000 
O  13.000000   0.000000   0.000000 
O  14.000000   0.000000   0.000000 
O  15.000000   0.000000   0.000000 
O  16.000000   0.000000   0.000000 
O  17.000000   0.000000   0.000000 
O  18.000000   0.000000   0.000000 
O  19.000000   0.000000   0.000000 
O  20.000000   0.000000   0.000000 
O  21.000000   0.000000   0.000000 
O  22.000000   0.000000   0.000000 
O  23.000000   0.000000   0.000000 
O  24.000000   0.000000   0.000000 
O  25.000000   0.000000   0.000000 
O  26.000000   0.000000   0.000000 
O  27.000000   0.000000   0.000000 
O  28.000000   0.000000   0.000000 
O  29.000000   0.000000   0.000000 
O  30.000000   0.000000   0.000000 
O  31.000000   0.000000   0.000000 
O  32.000000   0.000000   0.000000 
O  33.000000   0.000000   0.000000 
O  34.000000   0.000000   0.000000 
O  35.000000   0.000000   0.000000 
O  36.000000   0.000000   0.000000 
O  37.000000   0.000000   0.000000 
O  38.000000   0.000000   0.000000 
O  39.000000   0.000000   0.000000 
O  40.000000   0.000000   0.000000 
O  41.000000   0.000000   0.000000 
O  42.000000   0.000000   0.000000 
O  43.000000   0.000000   0.000000 
O  44.000000   0.000000   0.000000 
O  45.000000   0.000000   0.000000 
O  46.000000   0.000000   0.000000 
O  47.000000   0.000000   0.000000 
O  48.000000   0.000000   0.000000 
O  49.000000   0.000000   0.000000 
O  50.000000   0.000000   0.000000 
O  51.000000   0.000000   0.000000 
O  52.000000   0.000000   0.000000 
O  53.000000   0.000000   0.000000 
O  54.000000   0.000000   0.000000 
O  55.000000   0.000000   0.000000 
O  56.000000   0.000000   0.000000 
O  57.000000   0.000000   0.000000 
O  58.000000   0.000000   0.000000 
O  59.000000   0.000000   0.000000 
O  60.000000   0.000000   0.000000 
O  61.000000   0.000000   0.000000 
O  62.000000   0.000000   0.000000 
O  63.000000   0.000000   0.000000 
O  64.000000   0.000000   0.000000 
O  65.000000   0.000000   0.000000 
O  66.000000   0.000000   0.000000 
O  67.000000   0.000000   0.000000 
O  68.000000   0.000000   0.000000 
O  69.000000   0.000000   0.000000 
O  70.000000   0.000000   0.000000 
O  71.000000   0.000000   0.000000 
O  72.000000   0.000000   0.000000 
O  73.000000   0.000000   0.000000 
O  74.000000   0.000000   0.000000 
O  75.000000   0.000000   0.000000 
O  76.000000   0.000000   0.000000 
O  77.000000   0.000000   0.000000 
O  78.000000   0.000000   0.000000 
O  79.000000   0.000000   0.000000 
O  80.000000   0.000000   0.000000 
O  81.000000   0.000000   0.000000 
O  82.000000   0.000000   0.000000 
O  83.000000   0.000000   0.000000 
O  84.000000   0.000000   0.000000 
O  85.000000   0.000000   0.000000 
O  86.000000   0.000000   0.000000 
O  87.000000   0.000000   0.000000 
O  88.000000   0.000000   0.000000 
O  89.000000   0.000000   0.000000 
O  90.000000   0.000000   0.000000 
O  91.000000   0.000000   0.000000 
O  92.000000   0.000000   0.000000 
O  93.000000   0.000000   0.000000 
O  94.000000   0.000000   0.000000 
O  95.000000   0.000000   0.000000 
O  96.000000   0.000000   0.000000 
O  97.000000   0.000000   0.000000 
O  98.000000   0.000000   0.000000 
O  99.000000   0.000000   0.000000 
100

O  0.000000   0.000000   0.000000 
O  1.000000   0.000000   0.000000 
O  2.000000   0.000000   0.000000 
O  3.000000   0.000000   0.000000 
O  4.000000   0.000000   0.000000 
O  5.000000   0.000000   0.000000 
O  6.000000   0.000000   0.000000 
O  7.000000   0.000000   0.000000 
O  8.000000   0.000000   0.000000 
O  9.000000   0.000000   0.000000 
O  10.000000   0.000000   0.000000 
O  11.000000   0.000000   0.000000 
O  12.000000   0.000000   0.000000 
O  13.000000   0.000000   0.000000 
O  14.000000   0.000000   0.000000 
O  15.000000   0.000000   0.000000 
O  16.000000   0.000000   0.000000 
O  17.000000   0.000000   0.000000 
O  18.000000   0.000000   0.000000 
O  19.000000   0.000000   0.000000 
O  20.000000   0.000000   0.000000 
O  21.000000   0.000000   0.000000 
O  22.000000   0.000000   0.000000 
O  23.000000   0.000000   0.000000 
O  24.000000   0.000000   0.000000 
O  25.000000   0.000000   0.000000 
O  26.000000   0.000000   0.000000 
O  27.000000   0.000000   0.000000 
O  28.000000   0.000000   0.000000 
O  29.000000   0.000000   0.000000 
O  30.000000   0.000000   0.000000 
O  31.000000   0.000000   0.000000 
O  32.000000   0.000000   0.000000 
O  33.000000   0.000000   0.000000 
O  34.000000   0.000000   0.000000 
O  35.000000   0.000000   0.000000 
O  36.000000   0.000000   0.000000 
O  37.000000   0.000000   0.000000 
O  38.000000   0.000000   0.000000 
O  39.000000   0.000000   0.000000 
O  40.000000   0.000000   0.000000 
O  41.000000   0.000000   0.000000 
O  42.000000   0.000000   0.000000 
O  43.000000   0.000000   0.000000 
O  44.000000   0.000000   0.000000 
O  45.000000   0.000000   0.000000 
O  46.000000   0.000000   0.000000 
O  47.000000   0.000000   0.000000 
O  48.000000   0.000000   0.000000 
O  49.000000   0.000000   0.000000 
O  50.000000   0.000000   0.000000 
O  51.000000   0.000000   0.000000 
O  52.000000   0.000000   0.000000 
O  53.000000   0.000000   0.000000 
O  54.000000   0.000000   0.000000 
O  55.000000   0.000000   0.000000 
O  56.000000   0.000000   0.000000 
O  57.000000   0.000000   0.000000 
O  58.000000   0.000000   0.000000 
O  59.000000   0.000000   0.000000 
O  60.000000   0.000000   0.000000 
O  61.000000   0.000000   0.000000 
O  62.000000   0.000000   0.000000 
O  63.000000   0.000000   0.000000 
O  64.000000   0.000000   0.000000 
O  65.000000   0.000000   0.000000 
O  66.000000   0.000000   0.000000 
O  67.000000   0.000000   0.000000 
O  68.000000   0.000000   0.000000 
O  69.000000   0.000000   0.000000 
O  70.000000   0.000000   0.000000 
O  71.000000   0.000000   0.000000 
O  72.000000   0.000000   0.000000 
O  73.000000   0.000000   0.000000 
O  74.000000   0.000000   0.000000 
O  75.000000   0.000000   0.000000 
O  76.000000   0.000000   0.000000 
O  77.000000   0.000000   0.000000 
O  78.000000   0.000000   0.000000 
O  79.000000   0.000000   0.000000 
O  80.000000   0.000000   0.000000 
O  81.000000   0.000000   0.000000 
O  82.000000   0.000000   0.000000 
O  83.000000   0.000000   0.000000 
O  84.000000   0.000000   0.000000 
O  85.000000   0.000000   0.000000 
O  86.000000   0.000000   0.000000 
O  87.000000   0.000000   0.000000 
O  88.000000   0.000000   0.000000 
O  89.000000   0.000000   0.000000 
O  90.000000   0.000000   0.000000 
O  91.000000   0.000000   0.000000 
O  92.000000   0.000000   0.000000 
O  93.000000   0.000000   0.000000 
O  94.000000   0.000000   0.000000 
O  95.000000   0.000000   0.000000 
O  96.000000   0.000000   0.000000 
O  97.000000   0.000000   0.000000 
O  98.000000   0.000000   0.000000 
O  99.000000   0.000000   0.000000 
100

O  0.000000   0.000000   0.000000 
O  1.000000   0.000000   0.000000 
O  2.000000   0.000000   0.000000 
O  3.000000   0.000000   0.000000 
O  4.000000   0.000000   0.000000 
O  5.000000   0.000000   0.000000 
O  6.000000   0.000000   0.000000 
O  7.000000   0.000000   0.000000 
O  8.000000   0.000000   0.000000 
O  9.000000   0.000000   0.000000 
O  10.000000   0.000000   0.000000 
O  11.000000   0.000000   0.000000 
O  12.000000   0.000000   0.000000 
O  13.000000   0.000000   0.000000 
O  14.000000   0.000000   0.000000 
O  15.000000   0.000000   0.000000 
O  16.000000   0.000000   0.000000 
O  17.000000   0.000000   0.000000 
O  18.000000   0.000000   0.000000 
O  19.000000   0.000000   0.000000 
O  20.000000   0.000000   0.000000 
O  21.000000   0.000000   0.000000 
O  22.000000   0.000000   0.000000 
O  23.000000   0.000000   0.000000 
O  24.000000   0.000000   0.000000 
O  25.000000   0.000000   0.000000 
O  26.000000   0.000000   0.000000 
O  27.000000   0.000000   0.000000 
O  28.000000   0.000000   0.000000 
O  29.000000   0.000000   0.000000 
O  30.000000   0.000000   0.000000 
O  31.000000   0.000000   0.000000 
O  32.000000   0.000000   0.000000 
O  33.000000   0.000000   0.000000 
O  34.000000   0.000000   0.000000 
O  35.000000   0.000000   0.000000 
O  36.000000   0.000000   0.000000 
O  37.000000   0.000000   0.000000 
O  38.000000   0.000000   0.000000 
O  39.000000   0.000000   0.000000 
O  40.000000   0.000000   0.000000 
O  41.000000   0.000000   0.000000 
O  42.000000   0.000000   0.000000 
O  43.000000   0.000000   0.000000 
O  44.000000   0.000000   0.000000 
O  45.000000   0.000000   0.000000 
O  46.000000   0.000000   0.000000 
O  47.000000   0.000000   0.000000 
O  48.000000   0.000000   0.000000 
O  49.000000   0.000000   0.000000 
O  50.000000   0.000000   0.000000 
O  51.000000   0.000000   0.000000 
O  52.000000   0.000000   0.000000 
O  53.000000   0.000000   0.000000 
O  54.000000   0.000000   0.000000 
O  55.000000   0.000000   0.000000 
O  56.000000   0.000000   0.000000 
O  57.000000   0.000000   0.000000 
O  58.000000   0.000000   0.000000 
O  59.000000   0.000000   0.000000 
O  60.000000   0.000000   0.000000 
O  61.000000   0.000000   0.000000 
O  62.000000   0.000000   0.000000 
O  63.000000   0.000000   0.000000 
O  64.000000   0.000000   0.000000 
O  65.000000   0.000000   0.000000 
O  66.000000   0.000000   0.000000 
O  67.000000   0.000000   0.000000 
O  68.000000   0.000000   0.000000 
O  69.000000   0.000000   0.000000 
O  70.000000   0.000000   0.000000 
O  71.000000   0.000000   0.000000 
O  72.000000   0.000000   0.000000 
O  73.000000   0.000000   0.000000 
O  74.000000   0.000000   0.000000 
O  75.000000   0.000000   0.000000 
O  76.000000   0.000000   0.000000 
O  77.000000   0.000000   0.000000 
O  78.000000   0.000000   0.000000 
O  79.000000   0.000000   0.000000 
O  80.000000   0.000000   0.000000 
O  81.000000   0.000000   0.000000 
O  82.000000   0.000000   0.000000 
O  83.000000   0.000000   0.000000 
O  84.000000   0.000000   0.000000 
O  85.000000   0.000000   0.000000 
O  86.000000   0.000000   0.000000 
O  87.000000   0.000000   0.000000 
O  88.000000   0.000000   0.000000 
O  89.000000   0.000000   0.000000 
O  90.000000   0.000000   0.000000 
O  91.000000   0.000000   0.000000 
O  92.000000   0.000000   0.000000 
O  93.000000   0.000000   0.000000 
O  94.000000   0.000000   0.000000 
O  95.000000   0.000000   0.000000 
O  96.000000   0.000000   0.000000 
O  97.000000   0.000000   0.000000 
O  98.000000   0.000000   0.000000 
O  99.000000   0.000000   0.000000 
